##CIF_1.1

data_sm_global
#Used dictionaries
loop_
_audit_conform_dict_name
_audit_conform_dict_version
_audit_conform_dict_location
cif_core.dic 	2.4.2 	.
cif_pd.dic 		1.0.1 	.
cif_sm.dic 		0.1 	'redaktion.landolt-boernstein(at)springer.com'

#About this content and reference
_sm_credits_copyright
;PAULING FILE Multinaries Edition - 2012. SpringerMaterials Release 2014.
http://www.paulingfile.com
Unique LPF ID Number SD0458527
Project Coordinator: Shuichi Iwata
Section-Editors: Karin Cenzual (Crystal Structures), Hiroaki Okamoto (Phase 
Diagrams), Fritz Hulliger (Physical Properties)
(c) Springer & Material Phases Data System (MPDS), Switzerland & National 
Institute for Materials Science (NIMS), Japan 2014.
(Data generated pre-2002: (c) Springer & MPDS & NIMS; 
post-2001: (c) Springer & MPDS)
All Rights Reserved. Version 2014.06.
;

_audit_creation_method
;This data have been compiled from the crystallographic datasheet for 
"Li3Bi Crystal Structure" 
taken from SpringerMaterials (sm_isp_sd_0458527).
;

_publ_section_references
;Brauer G., Zintl E.: <i>Konstitution von Phosphiden, Arseniden, Antimoniden und Wismutiden des Lithiums, Natriums und Kaliums (23. Mitteilung ueber Metalle und Legierungen)</i>. Zeitschrift f&#x00fc;r Physikalische Chemie, Abteilung B <b>37</b> (1937) 323-352 (in German).
;

#Phase classification
_sm_phase_labels				'Li3Bi rt'
_chemical_name_mineral			''
_sm_chemical_compound_class		'intermetallic'
_sm_phase_prototype				'BiF3 '
_sm_pearson_symbol				'cF16'
_symmetry_Int_Tables_number		225
_sm_sample_details
;powder (determination of cell and structural parameters)
;
_sm_measurement_details
;Debye-Scherrer film (determination of cell and structural parameters), 
X-rays, Cu K&#x03b1; (determination of cell and structural parameters)
;
_sm_interpretation_details
;cell parameters determined and type with fixed coordinates assigned, 
trial-and-error
;

data_sm_isp_SD0458527-standardized_unitcell
#Cell Parameters
_cell_length_a					6.708
_cell_length_b					6.708
_cell_length_c					6.708
_cell_angle_alpha				90
_cell_angle_beta				90
_cell_angle_gamma				90
_sm_length_ratio_ab				1.000
_sm_length_ratio_bc				1.000
_sm_length_ratio_ca				1.000
_cell_volume 					301.84
_symmetry_space_group_name_H-M	'Fm-3m'
_symmetry_Int_Tables_number		225
_cell_formula_units_Z			4
_sm_cell_transformation
;No transformation from published to standardized cell parameters necessary.
;

#Atom Coordinates
loop_
_atom_site_label
_atom_site_type_symbol
_atom_site_Wyckoff_symbol
_sm_site_symmetry
_atom_site_fract_x
_atom_site_fract_y
_atom_site_fract_z
_atom_site_occupancy
_sm_coordination_number
_sm_atomic_environment_type
Li2 'Li' .8c .-43m 0.25 0.25 0.25 1 14 'rhombic dodecahedron, Bi<sub>4</sub>Li<sub>10</sub>'
Li1 'Li' .4b .m-3m 0.5 0.5 0.5 1 14 'rhombic dodecahedron, Li<sub>8</sub>Bi<sub>6</sub>'
Bi 'Bi' .4a .m-3m 0 0 0 1 14 'rhombic dodecahedron, Li<sub>14</sub>'

_sm_atom_site_transformation
;No transformation from published to standardized cell parameters necessary.
;

data_sm_isp_SD0458527-published_cell
#Cell Parameters
_cell_length_a					6.708
_cell_length_b					6.708
_cell_length_c					6.708
_cell_angle_alpha				90
_cell_angle_beta				90
_cell_angle_gamma				90
_sm_length_ratio_ab				1.000
_sm_length_ratio_bc				1.000
_sm_length_ratio_ca				1.000
_cell_volume 					301.84
_symmetry_space_group_name_H-M	'Fm-3m'
_symmetry_Int_Tables_number		225
_cell_formula_units_Z			4

#Atom Coordinates
loop_
_atom_site_label
_atom_site_type_symbol
_atom_site_Wyckoff_symbol
_sm_site_symmetry
_atom_site_fract_x
_atom_site_fract_y
_atom_site_fract_z
_atom_site_occupancy
_sm_coordination_number
_sm_atomic_environment_type
Bi 'Bi' .4a .m-3m 0 0 0 1 ? '?'
Li1 'Li' .4b .m-3m 0.5 0.5 0.5 1 ? '?'
Li2 'Li' .8c .-43m 0.25 0.25 0.25 1 ? '?'

data_sm_isp_SD0458527-niggli_reduced_cell
#Cell Parameters
_cell_length_a					4.7433
_cell_length_b					4.7433
_cell_length_c					4.7433
_cell_angle_alpha				60
_cell_angle_beta				60
_cell_angle_gamma				60
_sm_length_ratio_ab				1.000
_sm_length_ratio_bc				1.000
_sm_length_ratio_ca				1.000
_cell_volume 					75.46
_symmetry_space_group_name_H-M	''
_symmetry_Int_Tables_number		?
_cell_formula_units_Z			4

#Atom Coordinates
loop_
_atom_site_label
_atom_site_type_symbol
_atom_site_Wyckoff_symbol
_sm_site_symmetry
_atom_site_fract_x
_atom_site_fract_y
_atom_site_fract_z
_atom_site_occupancy
_sm_coordination_number
_sm_atomic_environment_type
? ? ? ? ? ? ? ? ? ?

